IEEE_118bus/RAW/case118_modify_genafter.raw
0 ,  100.000,   33, 0,1, 60.00
 08/25/93 UW ARCHIVE           100.0  1961 W IEEE 118 BUS TE
 08/25/93 UW ARCHIVE           100.0  1961 W IEEE 118 BUS TE
     1,'RIVERSDE    ',138.0000,2,   1,   1,   1,0.970200,25.651909,1.100000,0.900000,1.100000,0.900000
     2,'POKAGON     ',138.0000,1,   1,   1,   1,0.975100,25.836809,1.100000,0.900000,1.100000,0.900000
     3,'HICKRYCK    ',138.0000,1,   1,   1,   1,0.977980,26.209711,1.100000,0.900000,1.100000,0.900000
     4,'NWCARLSL    ',138.0000,2,   1,   1,   1,0.998000,28.717112,1.100000,0.900000,1.100000,0.900000
     5,'OLIVE       ',138.0000,1,   1,   1,   1,1.001550,28.922611,1.100000,0.900000,1.100000,0.900000
     6,'KANKAKEE    ',138.0000,2,   1,   1,   1,0.990000,27.380711,1.100000,0.900000,1.100000,0.900000
     7,'JACKSNRD    ',138.0000,1,   1,   1,   1,0.986810,26.902311,1.100000,0.900000,1.100000,0.900000
     8,'OLIVE       ',138.0000,2,   1,   1,   1,1.015000,31.968611,1.100000,0.900000,1.100000,0.900000
     9,'BEQUINE     ',138.0000,1,   1,   1,   1,1.047750,36.808716,1.100000,0.900000,1.100000,0.900000
    10,'BREED       ',138.0000,2,   1,   1,   1,1.050000,41.925316,1.100000,0.900000,1.100000,0.900000
    11,'SOUTHBND    ',138.0000,1,   1,   1,   1,0.984460,26.829012,1.100000,0.900000,1.100000,0.900000
    12,'TWINBRCH    ',138.0000,2,   1,   1,   1,0.982340,26.332911,1.100000,0.900000,1.100000,0.900000
    13,'CONCORD     ',138.0000,1,   1,   1,   1,0.977510,25.940411,1.100000,0.900000,1.100000,0.900000
    14,'GOSHENJT    ',138.0000,1,   1,   1,   1,0.982490,25.854010,1.100000,0.900000,1.100000,0.900000
    15,'FTWAYNE     ',138.0000,2,   1,   1,   1,0.982400,25.550409,1.100000,0.900000,1.100000,0.900000
    16,'N. E.       ',138.0000,1,   1,   1,   1,0.984910,25.996811,1.100000,0.900000,1.100000,0.900000
    17,'SORENSON    ',138.0000,1,   1,   1,   1,1.001510,26.709511,1.100000,0.900000,1.100000,0.900000
    18,'MCKINLEY    ',138.0000,2,   1,   1,   1,0.980610,25.748709,1.100000,0.900000,1.100000,0.900000
    19,'LINCOLN     ',138.0000,2,   1,   1,   1,0.973700,25.656012,1.100000,0.900000,1.100000,0.900000
    20,'ADAMS       ',138.0000,1,   1,   1,   1,0.976600,25.451710,1.100000,0.900000,1.100000,0.900000
    21,'JAY         ',138.0000,1,   1,   1,   1,0.980000,25.832510,1.100000,0.900000,1.100000,0.900000
    22,'RANDOLPH    ',138.0000,1,   1,   1,   1,0.988020,26.690510,1.100000,0.900000,1.100000,0.900000
    23,'COLLCRNR    ',138.0000,1,   1,   1,   1,1.003320,28.593611,1.100000,0.900000,1.100000,0.900000
    24,'TRENTON     ',138.0000,2,   1,   1,   1,0.992190,28.853510,1.100000,0.900000,1.100000,0.900000
    25,'TANNRSCK    ',138.0000,2,   1,   1,   1,1.037120,30.767014,1.100000,0.900000,1.100000,0.900000
    26,'TANNRSCK    ',138.0000,2,   1,   1,   1,1.015000,32.824814,1.100000,0.900000,1.100000,0.900000
    27,'MADISON     ',138.0000,2,   1,   1,   1,0.972560,26.999310,1.100000,0.900000,1.100000,0.900000
    28,'MULLIN      ',138.0000,1,   1,   1,   1,0.967450,26.568110,1.100000,0.900000,1.100000,0.900000
    29,'GRANT       ',138.0000,1,   1,   1,   1,0.965770,26.626812,1.100000,0.900000,1.100000,0.900000
    30,'SORENSON    ',138.0000,1,   1,   1,   1,0.995610,29.263811,1.100000,0.900000,1.100000,0.900000
    31,'DEERCRK     ',138.0000,2,   1,   1,   1,0.967000,26.922110,1.100000,0.900000,1.100000,0.900000
    32,'DELAWARE    ',138.0000,2,   1,   1,   1,0.976470,26.698111,1.100000,0.900000,1.100000,0.900000
    33,'HAVILAND    ',138.0000,1,   1,   1,   1,0.987510,25.082809,1.100000,0.900000,1.100000,0.900000
    34,'ROCKHILL    ',138.0000,2,   1,   1,   1,0.996620,25.457510,1.100000,0.900000,1.100000,0.900000
    35,'WESTLIMA    ',138.0000,1,   1,   1,   1,0.994560,25.165010,1.100000,0.900000,1.100000,0.900000
    36,'STERLING    ',138.0000,2,   1,   1,   1,0.994000,25.180710,1.100000,0.900000,1.100000,0.900000
    37,'EASTLIMA    ',138.0000,1,   1,   1,   1,1.001550,25.597910,1.100000,0.900000,1.100000,0.900000
    38,'EASTLIMA    ',138.0000,1,   1,   1,   1,0.974760,27.703609,1.100000,0.900000,1.100000,0.900000
    39,'NWLIBRTY    ',138.0000,1,   1,   1,   1,0.977910,24.518509,1.100000,0.900000,1.100000,0.900000
    40,'WEST END    ',138.0000,2,   1,   1,   1,0.970000,24.396910,1.100000,0.900000,1.100000,0.900000
    41,'S.TIFFIN    ',138.0000,1,   1,   1,   1,0.970320,24.073109,1.100000,0.900000,1.100000,0.900000
    42,'HOWARD      ',138.0000,2,   1,   1,   1,0.985000,24.804310,1.100000,0.900000,1.100000,0.900000
    43,'S.KENTON    ',138.0000,1,   1,   1,   1,1.001180,25.152210,1.100000,0.900000,1.100000,0.900000
    44,'WMVERNON    ',138.0000,1,   1,   1,   1,1.011320,26.173910,1.100000,0.900000,1.100000,0.900000
    45,'N.NEWARK    ',138.0000,1,   1,   1,   1,1.008420,27.131611,1.100000,0.900000,1.100000,0.900000
    46,'W.LANCST    ',138.0000,2,   1,   1,   1,1.005000,29.273909,1.100000,0.900000,1.100000,0.900000
    47,'CROOKSVL    ',138.0000,1,   1,   1,   1,1.020640,29.035912,1.100000,0.900000,1.100000,0.900000
    48,'ZANESVLL    ',138.0000,1,   1,   1,   1,1.024090,29.056210,1.100000,0.900000,1.100000,0.900000
    49,'PHILO       ',138.0000,2,   1,   1,   1,1.025000,29.425911,1.100000,0.900000,1.100000,0.900000
    50,'WCAMBRDG    ',138.0000,1,   1,   1,   1,1.010580,27.918512,1.100000,0.900000,1.100000,0.900000
    51,'NEWCMRST    ',138.0000,1,   1,   1,   1,0.990340,26.017511,1.100000,0.900000,1.100000,0.900000
    52,'SCOSHOCT    ',138.0000,1,   1,   1,   1,0.984560,25.375412,1.100000,0.900000,1.100000,0.900000
    53,'WOOSTER     ',138.0000,1,   1,   1,   1,0.976460,24.530012,1.100000,0.900000,1.100000,0.900000
    54,'TORREY      ',138.0000,2,   1,   1,   1,0.977950,24.801510,1.100000,0.900000,1.100000,0.900000
    55,'WAGENHLS    ',138.0000,2,   1,   1,   1,0.975710,24.674810,1.100000,0.900000,1.100000,0.900000
    56,'SUNNYSDE    ',138.0000,2,   1,   1,   1,0.977440,24.790512,1.100000,0.900000,1.100000,0.900000
    57,'WNWPHIL1    ',138.0000,1,   1,   1,   1,0.990230,25.889509,1.100000,0.900000,1.100000,0.900000
    58,'WNWPHIL2    ',138.0000,1,   1,   1,   1,0.983910,25.328711,1.100000,0.900000,1.100000,0.900000
    59,'TIDD        ',138.0000,2,   1,   1,   1,0.985000,26.923311,1.100000,0.900000,1.100000,0.900000
    60,'SWKAMMER    ',138.0000,1,   1,   1,   1,0.994630,29.218513,1.100000,0.900000,1.100000,0.900000
    61,'W.KAMMER    ',138.0000,2,   1,   1,   1,0.995000,29.645813,1.100000,0.900000,1.100000,0.900000
    62,'NATRIUM     ',138.0000,2,   1,   1,   1,1.001180,29.764212,1.100000,0.900000,1.100000,0.900000
    63,'TIDD        ',138.0000,1,   1,   1,   1,0.969020,28.616611,1.100000,0.900000,1.100000,0.900000
    64,'KAMMER      ',138.0000,1,   1,   1,   1,0.981780,29.476711,1.100000,0.900000,1.100000,0.900000
    65,'MUSKNGUM    ',138.0000,2,   1,   1,   1,0.994330,30.580912,1.100000,0.900000,1.100000,0.900000
    66,'MUSKNGUM    ',138.0000,2,   1,   1,   1,1.050000,34.099014,1.100000,0.900000,1.100000,0.900000
    67,'SUMMERFL    ',138.0000,1,   1,   1,   1,1.024190,31.671412,1.100000,0.900000,1.100000,0.900000
    68,'SPORN       ',138.0000,1,   1,   1,   1,0.992590,29.945614,1.100000,0.900000,1.100000,0.900000
    69,'SPORN       ',138.0000,3,   1,   1,   1,1.035000,30.000013,1.100000,0.900000,1.100000,0.900000
    70,'PORTSMTH    ',138.0000,2,   1,   1,   1,0.997830,28.037712,1.100000,0.900000,1.100000,0.900000
    71,'NPORTSMT    ',138.0000,1,   1,   1,   1,0.995740,28.363712,1.100000,0.900000,1.100000,0.900000
    72,'HILLSBRO    ',138.0000,2,   1,   1,   1,0.996770,28.165012,1.100000,0.900000,1.100000,0.900000
    73,'SARGENTS    ',138.0000,2,   1,   1,   1,0.991000,28.834509,1.100000,0.900000,1.100000,0.900000
    74,'BELLEFNT    ',138.0000,2,   1,   1,   1,0.979660,27.672812,1.100000,0.900000,1.100000,0.900000
    75,'STHPOINT    ',138.0000,1,   1,   1,   1,0.992230,27.763411,1.100000,0.900000,1.100000,0.900000
    76,'DARRAH      ',138.0000,2,   1,   1,   1,0.981590,27.059612,1.100000,0.900000,1.100000,0.900000
    77,'TURNER      ',138.0000,2,   1,   1,   1,1.021120,29.542612,1.100000,0.900000,1.100000,0.900000
    78,'CHEMICAL    ',138.0000,1,   1,   1,   1,1.020560,29.384111,1.100000,0.900000,1.100000,0.900000
    79,'CAPITLHL    ',138.0000,1,   1,   1,   1,1.025350,29.573912,1.100000,0.900000,1.100000,0.900000
    80,'CABINCRK    ',138.0000,2,   1,   1,   1,1.040000,30.986412,1.100000,0.900000,1.100000,0.900000
    81,'KANAWHA     ',138.0000,1,   1,   1,   1,0.990130,30.350111,1.100000,0.900000,1.100000,0.900000
    82,'LOGAN       ',138.0000,1,   1,   1,   1,1.010570,30.244711,1.100000,0.900000,1.100000,0.900000
    83,'SPRIGG      ',138.0000,1,   1,   1,   1,1.003490,31.039412,1.100000,0.900000,1.100000,0.900000
    84,'BETSYLNE    ',138.0000,1,   1,   1,   1,0.989750,32.772511,1.100000,0.900000,1.100000,0.900000
    85,'BEAVERCK    ',138.0000,2,   1,   1,   1,0.986710,33.824612,1.100000,0.900000,1.100000,0.900000
    86,'HAZARD      ',138.0000,1,   1,   1,   1,0.982280,32.957413,1.100000,0.900000,1.100000,0.900000
    87,'PINEVLLE    ',138.0000,2,   1,   1,   1,0.986840,32.921215,1.100000,0.900000,1.100000,0.900000
    88,'FREMONT     ',138.0000,1,   1,   1,   1,0.993370,35.111713,1.100000,0.900000,1.100000,0.900000
    89,'CLINCHRV    ',138.0000,2,   1,   1,   1,1.005000,37.082615,1.100000,0.900000,1.100000,0.900000
    90,'HOLSTON     ',138.0000,2,   1,   1,   1,0.985000,34.312614,1.100000,0.900000,1.100000,0.900000
    91,'HOLSTONT    ',138.0000,2,   1,   1,   1,0.993110,34.068413,1.100000,0.900000,1.100000,0.900000
    92,'SALTVLLE    ',138.0000,2,   1,   1,   1,1.004270,34.178516,1.100000,0.900000,1.100000,0.900000
    93,'TAZEWELL    ',138.0000,1,   1,   1,   1,1.004000,32.645813,1.100000,0.900000,1.100000,0.900000
    94,'SWITCHBK    ',138.0000,1,   1,   1,   1,1.007170,31.585114,1.100000,0.900000,1.100000,0.900000
    95,'CALDWELL    ',138.0000,1,   1,   1,   1,1.003510,30.874811,1.100000,0.900000,1.100000,0.900000
    96,'BAILEYSV    ',138.0000,1,   1,   1,   1,1.011830,30.563213,1.100000,0.900000,1.100000,0.900000
    97,'SUNDIAL     ',138.0000,1,   1,   1,   1,1.023660,30.573011,1.100000,0.900000,1.100000,0.900000
    98,'BRADLEY     ',138.0000,1,   1,   1,   1,1.028090,30.650913,1.100000,0.900000,1.100000,0.900000
    99,'HINTON      ',138.0000,2,   1,   1,   1,1.022640,30.895714,1.100000,0.900000,1.100000,0.900000
   100,'GLEN LYN    ',138.0000,2,   1,   1,   1,1.017000,31.968611,1.100000,0.900000,1.100000,0.900000
   101,'WYTHE       ',138.0000,1,   1,   1,   1,1.005470,32.410210,1.100000,0.900000,1.100000,0.900000
   102,'SMYTHE      ',138.0000,1,   1,   1,   1,1.004520,33.526711,1.100000,0.900000,1.100000,0.900000
   103,'CLAYTOR     ',138.0000,2,   1,   1,   1,1.010000,31.355711,1.100000,0.900000,1.100000,0.900000
   104,'HANCOCK     ',138.0000,2,   1,   1,   1,0.989100,29.996010,1.100000,0.900000,1.100000,0.900000
   105,'ROANOKE     ',138.0000,2,   1,   1,   1,0.984680,29.716011,1.100000,0.900000,1.100000,0.900000
   106,'CLOVERDL    ',138.0000,1,   1,   1,   1,0.979770,29.538214,1.100000,0.900000,1.100000,0.900000
   107,'REUSENS     ',138.0000,2,   1,   1,   1,0.952000,29.548311,1.100000,0.900000,1.100000,0.900000
   108,'BLAINE      ',138.0000,1,   1,   1,   1,0.980660,29.617611,1.100000,0.900000,1.100000,0.900000
   109,'FRANKLIN    ',138.0000,1,   1,   1,   1,0.978950,29.600512,1.100000,0.900000,1.100000,0.900000
   110,'FIELDALE    ',138.0000,2,   1,   1,   1,0.975990,29.756411,1.100000,0.900000,1.100000,0.900000
   111,'DANRIVER    ',138.0000,2,   1,   1,   1,0.980000,31.898813,1.100000,0.900000,1.100000,0.900000
   112,'DANVILLE    ',138.0000,2,   1,   1,   1,0.962760,28.315611,1.100000,0.900000,1.100000,0.900000
   113,'DEER CRK    ',138.0000,2,   1,   1,   1,0.998790,26.643211,1.100000,0.900000,1.100000,0.900000
   114,'WMEDFORD    ',138.0000,1,   1,   1,   1,0.972330,26.507210,1.100000,0.900000,1.100000,0.900000
   115,'MEDFORD     ',138.0000,1,   1,   1,   1,0.971820,26.502211,1.100000,0.900000,1.100000,0.900000
   116,'KYGERCRK    ',138.0000,2,   1,   1,   1,0.992550,29.697609,1.100000,0.900000,1.100000,0.900000
   117,'COREY       ',138.0000,1,   1,   1,   1,0.974290,25.435909,1.100000,0.900000,1.100000,0.900000
   118,'WHUNTNGD    ',138.0000,1,   1,   1,   1,0.983850,27.185610,1.100000,0.900000,1.100000,0.900000
0 / END OF BUS DATA, BEGIN LOAD DATA
     1,'1 ',1,   1,   1,    28.988,    15.346,     0.000,     0.000,     0.000,     0.000,   1,1,0
     2,'1 ',1,   1,   1,    11.368,     5.115,     0.000,     0.000,     0.000,     0.000,   1,1,0
     2,'PV',1,   1,   1,    -0.000,     0.000,     0.000,     0.000,     0.000,     0.000,   1,1,0
     3,'1 ',1,   1,   1,    22.167,     5.684,     0.000,     0.000,     0.000,     0.000,   1,1,0
     3,'PV',1,   1,   1,    -0.000,     0.000,     0.000,     0.000,     0.000,     0.000,   1,1,0
     4,'1 ',1,   1,   1,    22.167,     6.821,     0.000,     0.000,     0.000,     0.000,   1,1,0
     6,'1 ',1,   1,   1,    29.556,    12.504,     0.000,     0.000,     0.000,     0.000,   1,1,0
     7,'1 ',1,   1,   1,    10.799,     1.137,     0.000,     0.000,     0.000,     0.000,   1,1,0
     7,'PV',1,   1,   1,    -0.000,     0.000,     0.000,     0.000,     0.000,     0.000,   1,1,0
     8,'1 ',1,   1,   1,    15.915,     0.000,     0.000,     0.000,     0.000,     0.000,   1,1,0
    11,'1 ',1,   1,   1,    39.787,    13.073,     0.000,     0.000,     0.000,     0.000,   1,1,0
    11,'PV',1,   1,   1,    -0.000,     0.000,     0.000,     0.000,     0.000,     0.000,   1,1,0
    12,'1 ',1,   1,   1,    26.714,     5.684,     0.000,     0.000,     0.000,     0.000,   1,1,0
    13,'1 ',1,   1,   1,    19.325,     9.094,     0.000,     0.000,     0.000,     0.000,   1,1,0
    13,'PV',1,   1,   1,    -0.000,     0.000,     0.000,     0.000,     0.000,     0.000,   1,1,0
    14,'1 ',1,   1,   1,     7.957,     0.568,     0.000,     0.000,     0.000,     0.000,   1,1,0
    14,'PV',1,   1,   1,    -0.000,     0.000,     0.000,     0.000,     0.000,     0.000,   1,1,0
    15,'1 ',1,   1,   1,    51.154,    17.052,     0.000,     0.000,     0.000,     0.000,   1,1,0
    16,'1 ',1,   1,   1,    14.210,     5.684,     0.000,     0.000,     0.000,     0.000,   1,1,0
    16,'PV',1,   1,   1,    -0.000,     0.000,     0.000,     0.000,     0.000,     0.000,   1,1,0
    17,'1 ',1,   1,   1,     6.252,     1.705,     0.000,     0.000,     0.000,     0.000,   1,1,0
    17,'PV',1,   1,   1,    -0.000,     0.000,     0.000,     0.000,     0.000,     0.000,   1,1,0
    18,'1 ',1,   1,   1,    34.103,    19.325,     0.000,     0.000,     0.000,     0.000,   1,1,0
    19,'1 ',1,   1,   1,    25.577,    14.210,     0.000,     0.000,     0.000,     0.000,   1,1,0
    20,'1 ',1,   1,   1,    10.231,     1.705,     0.000,     0.000,     0.000,     0.000,   1,1,0
    20,'PV',1,   1,   1,    -0.000,     0.000,     0.000,     0.000,     0.000,     0.000,   1,1,0
    21,'1 ',1,   1,   1,     7.957,     4.547,     0.000,     0.000,     0.000,     0.000,   1,1,0
    21,'PV',1,   1,   1,    -0.000,     0.000,     0.000,     0.000,     0.000,     0.000,   1,1,0
    22,'1 ',1,   1,   1,     5.684,     2.842,     0.000,     0.000,     0.000,     0.000,   1,1,0
    22,'PV',1,   1,   1,    -0.000,     0.000,     0.000,     0.000,     0.000,     0.000,   1,1,0
    23,'1 ',1,   1,   1,     3.979,     1.705,     0.000,     0.000,     0.000,     0.000,   1,1,0
    23,'PV',1,   1,   1,    -0.000,     0.000,     0.000,     0.000,     0.000,     0.000,   1,1,0
    24,'1 ',1,   1,   1,     7.389,     0.000,     0.000,     0.000,     0.000,     0.000,   1,1,0
    27,'1 ',1,   1,   1,    40.355,     7.389,     0.000,     0.000,     0.000,     0.000,   1,1,0
    28,'1 ',1,   1,   1,     9.663,     3.979,     0.000,     0.000,     0.000,     0.000,   1,1,0
    28,'PV',1,   1,   1,    -0.000,     0.000,     0.000,     0.000,     0.000,     0.000,   1,1,0
    29,'1 ',1,   1,   1,    13.641,     2.274,     0.000,     0.000,     0.000,     0.000,   1,1,0
    29,'PV',1,   1,   1,    -0.000,     0.000,     0.000,     0.000,     0.000,     0.000,   1,1,0
    31,'1 ',1,   1,   1,    24.441,    15.346,     0.000,     0.000,     0.000,     0.000,   1,1,0
    32,'1 ',1,   1,   1,    33.535,    13.073,     0.000,     0.000,     0.000,     0.000,   1,1,0
    33,'1 ',1,   1,   1,    13.073,     5.115,     0.000,     0.000,     0.000,     0.000,   1,1,0
    33,'PV',1,   1,   1,    -0.000,     0.000,     0.000,     0.000,     0.000,     0.000,   1,1,0
    34,'1 ',1,   1,   1,    33.535,    14.778,     0.000,     0.000,     0.000,     0.000,   1,1,0
    35,'1 ',1,   1,   1,    18.757,     5.115,     0.000,     0.000,     0.000,     0.000,   1,1,0
    35,'PV',1,   1,   1,    -0.000,     0.000,     0.000,     0.000,     0.000,     0.000,   1,1,0
    36,'1 ',1,   1,   1,    17.620,     9.663,     0.000,     0.000,     0.000,     0.000,   1,1,0
    39,'1 ',1,   1,   1,    15.352,     6.255,     0.000,     0.000,     0.000,     0.000,   1,1,0
    39,'PV',1,   1,   1,    -0.000,     0.000,     0.000,     0.000,     0.000,     0.000,   1,1,0
    40,'1 ',1,   1,   1,    37.527,    13.078,     0.000,     0.000,     0.000,     0.000,   1,1,0
    41,'1 ',1,   1,   1,    21.038,     5.686,     0.000,     0.000,     0.000,     0.000,   1,1,0
    41,'PV',1,   1,   1,    -0.000,     0.000,     0.000,     0.000,     0.000,     0.000,   1,1,0
    42,'1 ',1,   1,   1,    54.585,    13.078,     0.000,     0.000,     0.000,     0.000,   1,1,0
    43,'1 ',1,   1,   1,    10.235,     3.980,     0.000,     0.000,     0.000,     0.000,   1,1,0
    43,'PV',1,   1,   1,    -0.000,     0.000,     0.000,     0.000,     0.000,     0.000,   1,1,0
    44,'1 ',1,   1,   1,     9.098,     4.549,     0.000,     0.000,     0.000,     0.000,   1,1,0
    44,'PV',1,   1,   1,    -0.000,     0.000,     0.000,     0.000,     0.000,     0.000,   1,1,0
    45,'1 ',1,   1,   1,    30.136,    12.509,     0.000,     0.000,     0.000,     0.000,   1,1,0
    45,'PV',1,   1,   1,    -0.000,     0.000,     0.000,     0.000,     0.000,     0.000,   1,1,0
    46,'1 ',1,   1,   1,    15.921,     5.686,     0.000,     0.000,     0.000,     0.000,   1,1,0
    47,'1 ',1,   1,   1,    19.332,     0.000,     0.000,     0.000,     0.000,     0.000,   1,1,0
    47,'PV',1,   1,   1,    -0.000,     0.000,     0.000,     0.000,     0.000,     0.000,   1,1,0
    48,'1 ',1,   1,   1,    11.372,     6.255,     0.000,     0.000,     0.000,     0.000,   1,1,0
    48,'PV',1,   1,   1,    -0.000,     0.000,     0.000,     0.000,     0.000,     0.000,   1,1,0
    49,'1 ',1,   1,   1,    49.468,    17.058,     0.000,     0.000,     0.000,     0.000,   1,1,0
    50,'1 ',1,   1,   1,     9.666,     2.274,     0.000,     0.000,     0.000,     0.000,   1,1,0
    50,'PV',1,   1,   1,    -0.000,     0.000,     0.000,     0.000,     0.000,     0.000,   1,1,0
    51,'1 ',1,   1,   1,     9.666,     4.549,     0.000,     0.000,     0.000,     0.000,   1,1,0
    51,'PV',1,   1,   1,    -0.000,     0.000,     0.000,     0.000,     0.000,     0.000,   1,1,0
    52,'1 ',1,   1,   1,    10.235,     2.843,     0.000,     0.000,     0.000,     0.000,   1,1,0
    52,'PV',1,   1,   1,    -0.000,     0.000,     0.000,     0.000,     0.000,     0.000,   1,1,0
    53,'1 ',1,   1,   1,    13.078,     6.255,     0.000,     0.000,     0.000,     0.000,   1,1,0
    53,'PV',1,   1,   1,    -0.000,     0.000,     0.000,     0.000,     0.000,     0.000,   1,1,0
    54,'1 ',1,   1,   1,    64.251,    18.195,     0.000,     0.000,     0.000,     0.000,   1,1,0
    55,'1 ',1,   1,   1,    35.822,    12.509,     0.000,     0.000,     0.000,     0.000,   1,1,0
    56,'1 ',1,   1,   1,    47.762,    10.235,     0.000,     0.000,     0.000,     0.000,   1,1,0
    57,'1 ',1,   1,   1,     6.823,     1.706,     0.000,     0.000,     0.000,     0.000,   1,1,0
    57,'PV',1,   1,   1,    -0.000,     0.000,     0.000,     0.000,     0.000,     0.000,   1,1,0
    58,'1 ',1,   1,   1,     6.823,     1.706,     0.000,     0.000,     0.000,     0.000,   1,1,0
    58,'PV',1,   1,   1,    -0.000,     0.000,     0.000,     0.000,     0.000,     0.000,   1,1,0
    59,'1 ',1,   1,   1,   157.502,    64.251,     0.000,     0.000,     0.000,     0.000,   1,1,0
    60,'1 ',1,   1,   1,    44.350,     1.706,     0.000,     0.000,     0.000,     0.000,   1,1,0
    60,'PV',1,   1,   1,    -0.000,     0.000,     0.000,     0.000,     0.000,     0.000,   1,1,0
    62,'1 ',1,   1,   1,    43.782,     7.960,     0.000,     0.000,     0.000,     0.000,   1,1,0
    66,'1 ',1,   1,   1,    22.175,    10.235,     0.000,     0.000,     0.000,     0.000,   1,1,0
    67,'1 ',1,   1,   1,    15.921,     3.980,     0.000,     0.000,     0.000,     0.000,   1,1,0
    67,'PV',1,   1,   1,    -0.000,     0.000,     0.000,     0.000,     0.000,     0.000,   1,1,0
    70,'1 ',1,   1,   1,    37.527,    11.372,     0.000,     0.000,     0.000,     0.000,   1,1,0
    72,'1 ',1,   1,   1,     6.823,     0.000,     0.000,     0.000,     0.000,     0.000,   1,1,0
    73,'1 ',1,   1,   1,     3.412,     0.000,     0.000,     0.000,     0.000,     0.000,   1,1,0
    74,'1 ',1,   1,   1,    38.664,    15.352,     0.000,     0.000,     0.000,     0.000,   1,1,0
    75,'1 ',1,   1,   1,    26.724,     6.255,     0.000,     0.000,     0.000,     0.000,   1,1,0
    75,'PV',1,   1,   1,    -0.000,     0.000,     0.000,     0.000,     0.000,     0.000,   1,1,0
    76,'1 ',1,   1,   1,    38.662,    20.468,     0.000,     0.000,     0.000,     0.000,   1,1,0
    77,'1 ',1,   1,   1,    34.682,    15.920,     0.000,     0.000,     0.000,     0.000,   1,1,0
    78,'1 ',1,   1,   1,    40.368,    14.783,     0.000,     0.000,     0.000,     0.000,   1,1,0
    78,'PV',1,   1,   1,    -0.000,     0.000,     0.000,     0.000,     0.000,     0.000,   1,1,0
    79,'1 ',1,   1,   1,    22.174,    18.194,     0.000,     0.000,     0.000,     0.000,   1,1,0
    79,'PV',1,   1,   1,    -0.000,     0.000,     0.000,     0.000,     0.000,     0.000,   1,1,0
    80,'1 ',1,   1,   1,    73.913,    14.783,     0.000,     0.000,     0.000,     0.000,   1,1,0
    82,'1 ',1,   1,   1,    30.702,    15.351,     0.000,     0.000,     0.000,     0.000,   1,1,0
    82,'PV',1,   1,   1,    -0.000,     0.000,     0.000,     0.000,     0.000,     0.000,   1,1,0
    83,'1 ',1,   1,   1,    11.371,     5.686,     0.000,     0.000,     0.000,     0.000,   1,1,0
    83,'PV',1,   1,   1,    -0.000,     0.000,     0.000,     0.000,     0.000,     0.000,   1,1,0
    84,'1 ',1,   1,   1,     6.254,     3.980,     0.000,     0.000,     0.000,     0.000,   1,1,0
    84,'PV',1,   1,   1,    -0.000,     0.000,     0.000,     0.000,     0.000,     0.000,   1,1,0
    85,'1 ',1,   1,   1,    13.645,     8.528,     0.000,     0.000,     0.000,     0.000,   1,1,0
    86,'1 ',1,   1,   1,    11.940,     5.686,     0.000,     0.000,     0.000,     0.000,   1,1,0
    86,'PV',1,   1,   1,    -0.000,     0.000,     0.000,     0.000,     0.000,     0.000,   1,1,0
    88,'1 ',1,   1,   1,    27.291,     5.686,     0.000,     0.000,     0.000,     0.000,   1,1,0
    88,'PV',1,   1,   1,    -0.000,     0.000,     0.000,     0.000,     0.000,     0.000,   1,1,0
    90,'1 ',1,   1,   1,    92.675,    23.880,     0.000,     0.000,     0.000,     0.000,   1,1,0
    91,'1 ',1,   1,   1,     5.686,     0.000,     0.000,     0.000,     0.000,     0.000,   1,1,0
    92,'1 ',1,   1,   1,    36.956,     5.686,     0.000,     0.000,     0.000,     0.000,   1,1,0
    93,'1 ',1,   1,   1,     6.823,     3.980,     0.000,     0.000,     0.000,     0.000,   1,1,0
    93,'PV',1,   1,   1,    -0.000,     0.000,     0.000,     0.000,     0.000,     0.000,   1,1,0
    94,'1 ',1,   1,   1,    17.057,     9.097,     0.000,     0.000,     0.000,     0.000,   1,1,0
    94,'PV',1,   1,   1,    -0.000,     0.000,     0.000,     0.000,     0.000,     0.000,   1,1,0
    95,'1 ',1,   1,   1,    23.880,    17.625,     0.000,     0.000,     0.000,     0.000,   1,1,0
    95,'PV',1,   1,   1,    -0.000,     0.000,     0.000,     0.000,     0.000,     0.000,   1,1,0
    96,'1 ',1,   1,   1,    21.605,     8.528,     0.000,     0.000,     0.000,     0.000,   1,1,0
    96,'PV',1,   1,   1,    -0.000,     0.000,     0.000,     0.000,     0.000,     0.000,   1,1,0
    97,'1 ',1,   1,   1,     8.528,     5.117,     0.000,     0.000,     0.000,     0.000,   1,1,0
    97,'PV',1,   1,   1,    -0.000,     0.000,     0.000,     0.000,     0.000,     0.000,   1,1,0
    98,'1 ',1,   1,   1,    19.331,     4.548,     0.000,     0.000,     0.000,     0.000,   1,1,0
    98,'PV',1,   1,   1,    -0.000,     0.000,     0.000,     0.000,     0.000,     0.000,   1,1,0
    99,'1 ',1,   1,   1,    23.880,     0.000,     0.000,     0.000,     0.000,     0.000,   1,1,0
   100,'1 ',1,   1,   1,    21.037,    10.234,     0.000,     0.000,     0.000,     0.000,   1,1,0
   101,'1 ',1,   1,   1,    12.508,     8.528,     0.000,     0.000,     0.000,     0.000,   1,1,0
   101,'PV',1,   1,   1,    -0.000,     0.000,     0.000,     0.000,     0.000,     0.000,   1,1,0
   102,'1 ',1,   1,   1,     2.843,     1.706,     0.000,     0.000,     0.000,     0.000,   1,1,0
   102,'PV',1,   1,   1,    -0.000,     0.000,     0.000,     0.000,     0.000,     0.000,   1,1,0
   103,'1 ',1,   1,   1,    13.077,     9.097,     0.000,     0.000,     0.000,     0.000,   1,1,0
   104,'1 ',1,   1,   1,    21.605,    14.214,     0.000,     0.000,     0.000,     0.000,   1,1,0
   105,'1 ',1,   1,   1,    17.625,    14.783,     0.000,     0.000,     0.000,     0.000,   1,1,0
   106,'1 ',1,   1,   1,    24.448,     9.097,     0.000,     0.000,     0.000,     0.000,   1,1,0
   106,'PV',1,   1,   1,    -0.000,     0.000,     0.000,     0.000,     0.000,     0.000,   1,1,0
   107,'1 ',1,   1,   1,    28.428,     6.823,     0.000,     0.000,     0.000,     0.000,   1,1,0
   108,'1 ',1,   1,   1,     1.137,     0.569,     0.000,     0.000,     0.000,     0.000,   1,1,0
   108,'PV',1,   1,   1,    -0.000,     0.000,     0.000,     0.000,     0.000,     0.000,   1,1,0
   109,'1 ',1,   1,   1,     4.548,     1.706,     0.000,     0.000,     0.000,     0.000,   1,1,0
   109,'PV',1,   1,   1,    -0.000,     0.000,     0.000,     0.000,     0.000,     0.000,   1,1,0
   110,'1 ',1,   1,   1,    22.174,    17.057,     0.000,     0.000,     0.000,     0.000,   1,1,0
   112,'1 ',1,   1,   1,    38.662,     7.391,     0.000,     0.000,     0.000,     0.000,   1,1,0
   113,'1 ',1,   1,   1,     3.411,     0.000,     0.000,     0.000,     0.000,     0.000,   1,1,0
   114,'1 ',1,   1,   1,     4.548,     1.706,     0.000,     0.000,     0.000,     0.000,   1,1,0
   114,'PV',1,   1,   1,    -0.000,     0.000,     0.000,     0.000,     0.000,     0.000,   1,1,0
   115,'1 ',1,   1,   1,    12.508,     3.980,     0.000,     0.000,     0.000,     0.000,   1,1,0
   115,'PV',1,   1,   1,    -0.000,     0.000,     0.000,     0.000,     0.000,     0.000,   1,1,0
   116,'1 ',1,   1,   1,   104.616,     0.000,     0.000,     0.000,     0.000,     0.000,   1,1,0
   117,'1 ',1,   1,   1,    11.371,     4.548,     0.000,     0.000,     0.000,     0.000,   1,1,0
   117,'PV',1,   1,   1,    -0.000,     0.000,     0.000,     0.000,     0.000,     0.000,   1,1,0
   118,'1 ',1,   1,   1,    18.762,     8.528,     0.000,     0.000,     0.000,     0.000,   1,1,0
   118,'PV',1,   1,   1,    -0.000,     0.000,     0.000,     0.000,     0.000,     0.000,   1,1,0
0 / END OF LOAD DATA, BEGIN FIXED SHUNT DATA
0 / END OF FIXED SHUNT DATA, BEGIN GENERATOR DATA
     1,'1 ',     0.000,     0.000,    60.000,   -38.000,0.955000,     0,   100.000,   0.00000,   1.00000,   0.00000,   0.00000,   1.00000,0,  100.0,    75.000,    16.000,   1,1.0000
     4,'1 ',    18.750,   -21.354,    54.000,   -36.000,0.998000,     0,   100.000,   0.00000,   1.00000,   0.00000,   0.00000,   1.00000,1,  100.0,    75.000,    15.000,   1,1.0000
     6,'1 ',    18.750,     8.737,    54.000,   -36.000,0.990000,     0,   100.000,   0.00000,   1.00000,   0.00000,   0.00000,   1.00000,1,  100.0,    75.000,    15.000,   1,1.0000
     8,'1 ',    18.750,    -8.935,    54.000,   -36.000,1.015000,     0,   100.000,   0.00000,   1.00000,   0.00000,   0.00000,   1.00000,1,  100.0,    75.000,    15.000,   1,1.0000
    10,'1 ',   304.425,   -71.257,   388.000,  -290.000,1.050000,     0,   100.000,   0.00000,   1.00000,   0.00000,   0.00000,   1.00000,1,  100.0,   629.000,   256.000,   1,1.0000
    12,'1 ',     0.000,     0.000,   120.000,  -105.000,0.990000,     0,   100.000,   0.00000,   1.00000,   0.00000,   0.00000,   1.00000,0,  100.0,   185.000,    61.667,   1,1.0000
    15,'1 ',     0.000,     0.000,    54.000,   -36.000,0.970000,     0,   100.000,   0.00000,   1.00000,   0.00000,   0.00000,   1.00000,0,  100.0,    75.000,    15.000,   1,1.0000
    18,'1 ',     0.000,     0.000,    54.000,   -36.000,0.973000,     0,   100.000,   0.00000,   1.00000,   0.00000,   0.00000,   1.00000,0,  100.0,    75.000,    18.750,   1,1.0000
    19,'1 ',    18.750,   -36.000,    54.000,   -36.000,0.962000,     0,   100.000,   0.00000,   1.00000,   0.00000,   0.00000,   1.00000,1,  100.0,    75.000,    15.000,   1,1.0000
    24,'1 ',    18.793,   -38.000,    60.000,   -38.000,0.992000,     0,   100.000,   0.00000,   1.00000,   0.00000,   0.00000,   1.00000,1,  100.0,    75.000,    15.000,   1,1.0000
    25,'1 ',     0.000,     0.000,   263.000,  -164.000,1.050000,     0,   100.000,   0.00000,   1.00000,   0.00000,   0.00000,   1.00000,0,  100.0,   320.000,   106.632,   1,1.0000
    26,'1 ',   177.744,    29.129,   250.000,  -215.000,1.015000,     0,   100.000,   0.00000,   1.00000,   0.00000,   0.00000,   1.00000,1,  100.0,   450.000,   148.000,   1,1.0000
    27,'1 ',    18.750,   -36.000,    54.000,   -36.000,0.968000,     0,   100.000,   0.00000,   1.00000,   0.00000,   0.00000,   1.00000,1,  100.0,    75.000,    15.000,   1,1.0000
    31,'1 ',    35.701,   -18.827,    90.000,   -60.000,0.967000,     0,   100.000,   0.00000,   1.00000,   0.00000,   0.00000,   1.00000,1,  100.0,   107.000,    29.000,   1,1.0000
    32,'1 ',     0.000,     0.000,    60.000,   -38.000,0.963000,     0,   100.000,   0.00000,   1.00000,   0.00000,   0.00000,   1.00000,0,  100.0,    75.000,    18.793,   1,1.0000
    34,'1 ',    18.792,   -38.000,    60.000,   -38.000,0.984000,     0,   100.000,   0.00000,   1.00000,   0.00000,   0.00000,   1.00000,1,  100.0,    75.000,    15.000,   1,1.0000
    36,'1 ',     0.000,     0.000,    60.000,   -38.000,0.980000,     0,   100.000,   0.00000,   1.00000,   0.00000,   0.00000,   1.00000,0,  100.0,    75.000,    18.750,   1,1.0000
    40,'1 ',    18.792,   -25.141,    60.000,   -38.000,0.970000,     0,   100.000,   0.00000,   1.00000,   0.00000,   0.00000,   1.00000,1,  100.0,    75.000,    15.000,   1,1.0000
    42,'1 ',    18.750,     3.836,    54.000,   -36.000,0.985000,     0,   100.000,   0.00000,   1.00000,   0.00000,   0.00000,   1.00000,1,  100.0,    75.000,    15.000,   1,1.0000
    46,'1 ',    39.705,   -41.591,    92.000,  -110.000,1.005000,     0,   100.000,   0.00000,   1.00000,   0.00000,   0.00000,   1.00000,1,  100.0,   119.000,    33.000,   1,1.0000
    49,'1 ',   101.301,    27.658,   253.000,  -152.000,1.025000,     0,   100.000,   0.00000,   1.00000,   0.00000,   0.00000,   1.00000,1,  100.0,   308.000,    84.000,   1,1.0000
    54,'1 ',     0.000,     0.000,   116.000,   -90.000,0.955000,     0,   100.000,   0.00000,   1.00000,   0.00000,   0.00000,   1.00000,0,  100.0,   148.000,    42.000,   1,1.0000
    55,'1 ',     0.000,     0.000,    54.000,   -36.000,0.952000,     0,   100.000,   0.00000,   1.00000,   0.00000,   0.00000,   1.00000,0,  100.0,    75.000,    18.750,   1,1.0000
    56,'1 ',     0.000,     0.000,    54.000,   -36.000,0.954000,     0,   100.000,   0.00000,   1.00000,   0.00000,   0.00000,   1.00000,0,  100.0,    75.000,    18.750,   1,1.0000
    59,'1 ',    84.973,   -12.919,   158.000,  -126.000,0.985000,     0,   100.000,   0.00000,   1.00000,   0.00000,   0.00000,   1.00000,1,  100.0,   257.000,    70.000,   1,1.0000
    61,'1 ',    86.639,   -30.950,   161.000,  -120.000,0.995000,     0,   100.000,   0.00000,   1.00000,   0.00000,   0.00000,   1.00000,1,  100.0,   260.000,    72.000,   1,1.0000
    62,'1 ',     0.000,     0.000,    54.000,   -36.000,0.998000,     0,   100.000,   0.00000,   1.00000,   0.00000,   0.00000,   1.00000,0,  100.0,    75.000,    18.750,   1,1.0000
    65,'1 ',     0.000,     0.000,   275.000,  -195.000,1.005000,     0,   100.000,   0.00000,   1.00000,   0.00000,   0.00000,   1.00000,0,  100.0,   526.000,   115.000,   1,1.0000
    66,'1 ',   492.000,    29.827,   316.000,  -185.000,1.050000,     0,   100.000,   0.00000,   1.00000,   0.00000,   0.00000,   1.00000,1,  100.0,   572.000,   235.000,   1,1.0000
    69,'1 ',    99.593,   -39.121,   400.000,  -400.000,1.035000,     0,   100.000,   0.00000,   1.00000,   0.00000,   0.00000,   1.00000,1,  100.0,   500.000,     0.000,   1,1.0000
    70,'1 ',     0.000,     0.000,    60.000,   -38.000,0.984000,     0,   100.000,   0.00000,   1.00000,   0.00000,   0.00000,   1.00000,0,  100.0,    75.000,    18.730,   1,1.0000
    72,'1 ',     0.000,     0.000,    60.000,   -38.000,0.980000,     0,   100.000,   0.00000,   1.00000,   0.00000,   0.00000,   1.00000,0,  100.0,    75.000,    16.000,   1,1.0000
    73,'1 ',    18.750,   -13.785,    54.000,   -36.000,0.991000,     0,   100.000,   0.00000,   1.00000,   0.00000,   0.00000,   1.00000,1,  100.0,    75.000,    15.000,   1,1.0000
    74,'1 ',    18.750,   -36.000,    54.000,   -36.000,0.958000,     0,   100.000,   0.00000,   1.00000,   0.00000,   0.00000,   1.00000,1,  100.0,    75.000,    15.000,   1,1.0000
    76,'1 ',     0.000,     0.000,    54.000,   -36.000,0.943000,     0,   100.000,   0.00000,   1.00000,   0.00000,   0.00000,   1.00000,0,  100.0,    75.000,    18.750,   1,1.0000
    77,'1 ',     0.000,     0.000,    54.000,   -36.000,1.006000,     0,   100.000,   0.00000,   1.00000,   0.00000,   0.00000,   1.00000,0,  100.0,    75.000,    18.750,   1,1.0000
    80,'1 ',   266.863,    40.630,   280.000,  -251.000,1.040000,     0,   100.000,   0.00000,   1.00000,   0.00000,   0.00000,   1.00000,1,  100.0,   627.000,   225.000,   1,1.0000
    85,'1 ',    18.814,   -38.000,    60.000,   -38.000,0.985000,     0,   100.000,   0.00000,   1.00000,   0.00000,   0.00000,   1.00000,1,  100.0,    75.000,    16.000,   1,1.0000
    87,'1 ',     0.000,     0.000,    71.000,   -55.000,1.015000,     0,   100.000,   0.00000,   1.00000,   0.00000,   0.00000,   1.00000,0,  100.0,   104.000,    34.634,   1,1.0000
    89,'1 ',   289.010,   -10.038,   354.000,  -165.000,1.005000,     0,   100.000,   0.00000,   1.00000,   0.00000,   0.00000,   1.00000,1,  100.0,   555.000,   245.000,   1,1.0000
    90,'1 ',    18.814,    -4.399,    60.000,   -38.000,0.985000,     0,   100.000,   0.00000,   1.00000,   0.00000,   0.00000,   1.00000,1,  100.0,    75.000,    15.000,   1,1.0000
    91,'1 ',     0.000,     0.000,    60.000,   -38.000,0.980000,     0,   100.000,   0.00000,   1.00000,   0.00000,   0.00000,   1.00000,0,  100.0,    75.000,    18.814,   1,1.0000
    92,'1 ',     0.000,     0.000,    60.000,   -38.000,0.990000,     0,   100.000,   0.00000,   1.00000,   0.00000,   0.00000,   1.00000,0,  100.0,    75.000,    18.814,   1,1.0000
    99,'1 ',     0.000,     0.000,    60.000,   -38.000,1.010000,     0,   100.000,   0.00000,   1.00000,   0.00000,   0.00000,   1.00000,0,  100.0,    75.000,    18.750,   1,1.0000
   100,'1 ',   117.374,    28.152,   324.700,  -151.700,1.017000,     0,   100.000,   0.00000,   1.00000,   0.00000,   0.00000,   1.00000,1,  100.0,   352.000,    97.000,   1,1.0000
   103,'1 ',    46.623,    26.255,   105.000,   -88.000,1.010000,     0,   100.000,   0.00000,   1.00000,   0.00000,   0.00000,   1.00000,1,  100.0,   140.000,    38.000,   1,1.0000
   104,'1 ',     0.000,     0.000,    54.000,   -36.000,0.971000,     0,   100.000,   0.00000,   1.00000,   0.00000,   0.00000,   1.00000,0,  100.0,    75.000,    18.750,   1,1.0000
   105,'1 ',     0.000,     0.000,    54.000,   -36.000,0.965000,     0,   100.000,   0.00000,   1.00000,   0.00000,   0.00000,   1.00000,0,  100.0,    75.000,    18.750,   1,1.0000
   107,'1 ',    18.730,   -31.526,    60.000,   -38.000,0.952000,     0,   100.000,   0.00000,   1.00000,   0.00000,   0.00000,   1.00000,1,  100.0,    75.000,    15.000,   1,1.0000
   110,'1 ',     0.000,     0.000,    60.000,   -38.000,0.973000,     0,   100.000,   0.00000,   1.00000,   0.00000,   0.00000,   1.00000,0,  100.0,    75.000,    18.730,   1,1.0000
   111,'1 ',    45.291,    -8.070,   100.000,   -75.000,0.980000,     0,   100.000,   0.00000,   1.00000,   0.00000,   0.00000,   1.00000,1,  100.0,   136.000,    38.000,   1,1.0000
   112,'1 ',     0.000,     0.000,    60.000,   -38.000,0.975000,     0,   100.000,   0.00000,   1.00000,   0.00000,   0.00000,   1.00000,0,  100.0,    75.000,    18.730,   1,1.0000
   113,'1 ',     0.000,     0.000,    60.000,   -38.000,0.993000,     0,   100.000,   0.00000,   1.00000,   0.00000,   0.00000,   1.00000,0,  100.0,    75.000,    18.730,   1,1.0000
   116,'1 ',     0.000,     0.000,    60.000,   -38.000,1.005000,     0,   100.000,   0.00000,   1.00000,   0.00000,   0.00000,   1.00000,0,  100.0,    75.000,    18.750,   1,1.0000
0 / END OF GENERATOR DATA, BEGIN BRANCH DATA
     1,     2,'1 ',   0.03030,   0.09990,   0.02540,   60.00,   90.00,  135.00,  0.00000,  0.00000,  0.00000,  0.00000,1,1,   0.00,  1,1.0000
     1,     3,'1 ',   0.01290,   0.04240,   0.01082,  129.00,  194.00,  290.00,  0.00000,  0.00000,  0.00000,  0.00000,1,1,   0.00,  1,1.0000
     2,    12,'1 ',   0.01870,   0.06160,   0.01572,  123.00,  185.00,  277.00,  0.00000,  0.00000,  0.00000,  0.00000,1,1,   0.00,  1,1.0000
     3,     5,'1 ',   0.02410,   0.10800,   0.02840,  240.00,  360.00,  540.00,  0.00000,  0.00000,  0.00000,  0.00000,1,1,   0.00,  1,1.0000
     3,    12,'1 ',   0.04840,   0.16000,   0.04060,   60.00,   90.00,  135.00,  0.00000,  0.00000,  0.00000,  0.00000,1,1,   0.00,  1,1.0000
     4,     5,'1 ',   0.00176,   0.00798,   0.00210,  342.00,  513.00,  770.00,  0.00000,  0.00000,  0.00000,  0.00000,1,1,   0.00,  1,1.0000
     4,    11,'1 ',   0.02090,   0.06880,   0.01748,  234.00,  351.00,  527.00,  0.00000,  0.00000,  0.00000,  0.00000,1,1,   0.00,  1,1.0000
     5,     6,'1 ',   0.01190,   0.05400,   0.01426,  306.00,  459.00,  689.00,  0.00000,  0.00000,  0.00000,  0.00000,1,1,   0.00,  1,1.0000
     5,    11,'1 ',   0.02030,   0.06820,   0.01738,  276.00,  414.00,  621.00,  0.00000,  0.00000,  0.00000,  0.00000,1,1,   0.00,  1,1.0000
     6,     7,'1 ',   0.00459,   0.02080,   0.00550,  174.00,  261.00,  392.00,  0.00000,  0.00000,  0.00000,  0.00000,1,1,   0.00,  1,1.0000
     7,    12,'1 ',   0.00862,   0.03400,   0.00874,  123.00,  185.00,  277.00,  0.00000,  0.00000,  0.00000,  0.00000,1,1,   0.00,  1,1.0000
     8,     9,'1 ',   0.00244,   0.03050,   1.16200, 1380.00, 2070.00, 3105.00,  0.00000,  0.00000,  0.00000,  0.00000,1,1,   0.00,  1,1.0000
     8,    30,'1 ',   0.00431,   0.05040,   0.51400,  741.00, 1112.00, 1667.00,  0.00000,  0.00000,  0.00000,  0.00000,1,1,   0.00,  1,1.0000
     9,    10,'1 ',   0.00258,   0.03220,   1.23000, 1395.00, 2093.00, 3139.00,  0.00000,  0.00000,  0.00000,  0.00000,1,1,   0.00,  1,1.0000
    11,    12,'1 ',   0.00595,   0.01960,   0.00502,  201.00,  302.00,  452.00,  0.00000,  0.00000,  0.00000,  0.00000,1,1,   0.00,  1,1.0000
    11,    13,'1 ',   0.02225,   0.07310,   0.01876,  126.00,  189.00,  284.00,  0.00000,  0.00000,  0.00000,  0.00000,1,1,   0.00,  1,1.0000
    12,    14,'1 ',   0.02150,   0.07070,   0.01816,   78.00,  117.00,  176.00,  0.00000,  0.00000,  0.00000,  0.00000,1,1,   0.00,  1,1.0000
    12,    16,'1 ',   0.02120,   0.08340,   0.02140,   96.00,  144.00,  216.00,  0.00000,  0.00000,  0.00000,  0.00000,1,1,   0.00,  1,1.0000
    12,   117,'1 ',   0.03290,   0.14000,   0.03580,   66.00,   99.00,  149.00,  0.00000,  0.00000,  0.00000,  0.00000,1,1,   0.00,  1,1.0000
    13,    15,'1 ',   0.07440,   0.24440,   0.06268,   96.00,  144.00,  216.00,  0.00000,  0.00000,  0.00000,  0.00000,1,1,   0.00,  1,1.0000
    14,    15,'1 ',   0.05950,   0.19500,   0.05020,  105.00,  158.00,  236.00,  0.00000,  0.00000,  0.00000,  0.00000,1,1,   0.00,  1,1.0000
    15,    17,'1 ',   0.01320,   0.04370,   0.04440,  336.00,  504.00,  756.00,  0.00000,  0.00000,  0.00000,  0.00000,1,1,   0.00,  1,1.0000
    15,    19,'1 ',   0.01200,   0.03940,   0.01010,  102.00,  153.00,  230.00,  0.00000,  0.00000,  0.00000,  0.00000,1,1,   0.00,  1,1.0000
    15,    33,'1 ',   0.03800,   0.12440,   0.03194,   81.00,  122.00,  182.00,  0.00000,  0.00000,  0.00000,  0.00000,1,1,   0.00,  1,1.0000
    16,    17,'1 ',   0.04540,   0.18010,   0.04660,  162.00,  243.00,  365.00,  0.00000,  0.00000,  0.00000,  0.00000,1,1,   0.00,  1,1.0000
    17,    18,'1 ',   0.01230,   0.05050,   0.01298,  264.00,  396.00,  594.00,  0.00000,  0.00000,  0.00000,  0.00000,1,1,   0.00,  1,1.0000
    17,    31,'1 ',   0.04740,   0.15630,   0.03990,  102.00,  153.00,  230.00,  0.00000,  0.00000,  0.00000,  0.00000,1,1,   0.00,  1,1.0000
    17,   113,'1 ',   0.00913,   0.03010,   0.00768,   84.00,  126.00,  189.00,  0.00000,  0.00000,  0.00000,  0.00000,1,1,   0.00,  1,1.0000
    18,    19,'1 ',   0.01119,   0.04930,   0.01142,   87.00,  131.00,  196.00,  0.00000,  0.00000,  0.00000,  0.00000,1,1,   0.00,  1,1.0000
    19,    20,'1 ',   0.02520,   0.11700,   0.02980,   81.00,  122.00,  182.00,  0.00000,  0.00000,  0.00000,  0.00000,1,1,   0.00,  1,1.0000
    19,    34,'1 ',   0.07520,   0.24700,   0.06320,   99.00,  149.00,  223.00,  0.00000,  0.00000,  0.00000,  0.00000,1,1,   0.00,  1,1.0000
    20,    21,'1 ',   0.01830,   0.08490,   0.02160,  129.00,  194.00,  290.00,  0.00000,  0.00000,  0.00000,  0.00000,1,1,   0.00,  1,1.0000
    21,    22,'1 ',   0.02090,   0.09700,   0.02460,  171.00,  257.00,  385.00,  0.00000,  0.00000,  0.00000,  0.00000,1,1,   0.00,  1,1.0000
    22,    23,'1 ',   0.03420,   0.15900,   0.04040,  207.00,  311.00,  466.00,  0.00000,  0.00000,  0.00000,  0.00000,1,1,   0.00,  1,1.0000
    23,    24,'1 ',   0.01350,   0.04920,   0.04980,  234.00,  351.00,  527.00,  0.00000,  0.00000,  0.00000,  0.00000,1,1,   0.00,  1,1.0000
    23,    25,'1 ',   0.01560,   0.08000,   0.08640,  579.00,  869.00, 1303.00,  0.00000,  0.00000,  0.00000,  0.00000,1,1,   0.00,  1,1.0000
    23,    32,'1 ',   0.03170,   0.11530,   0.11730,  351.00,  527.00,  790.00,  0.00000,  0.00000,  0.00000,  0.00000,1,1,   0.00,  1,1.0000
    24,    70,'1 ',   0.00221,   0.41150,   0.10198,  120.00,  180.00,  270.00,  0.00000,  0.00000,  0.00000,  0.00000,1,1,   0.00,  1,1.0000
    24,    72,'1 ',   0.04880,   0.19600,   0.04880,  117.00,  176.00,  263.00,  0.00000,  0.00000,  0.00000,  0.00000,1,1,   0.00,  1,1.0000
    25,    27,'1 ',   0.03180,   0.16300,   0.17640,  444.00,  666.00,  999.00,  0.00000,  0.00000,  0.00000,  0.00000,1,1,   0.00,  1,1.0000
    26,    30,'1 ',   0.00799,   0.08600,   0.90800,  858.00, 1287.00, 1931.00,  0.00000,  0.00000,  0.00000,  0.00000,1,1,   0.00,  1,1.0000
    27,    28,'1 ',   0.01913,   0.08550,   0.02160,  117.00,  176.00,  263.00,  0.00000,  0.00000,  0.00000,  0.00000,1,1,   0.00,  1,1.0000
    27,    32,'1 ',   0.02290,   0.07550,   0.01926,   48.00,   72.00,  108.00,  0.00000,  0.00000,  0.00000,  0.00000,1,1,   0.00,  1,1.0000
    27,   115,'1 ',   0.01640,   0.07410,   0.01972,   69.00,  104.00,  155.00,  0.00000,  0.00000,  0.00000,  0.00000,1,1,   0.00,  1,1.0000
    28,    29,'1 ',   0.02370,   0.09430,   0.02380,   69.00,  104.00,  155.00,  0.00000,  0.00000,  0.00000,  0.00000,1,1,   0.00,  1,1.0000
    29,    31,'1 ',   0.01080,   0.03310,   0.00830,   60.00,   90.00,  135.00,  0.00000,  0.00000,  0.00000,  0.00000,1,1,   0.00,  1,1.0000
    30,    38,'1 ',   0.00464,   0.05400,   0.42200,  471.00,  707.00, 1060.00,  0.00000,  0.00000,  0.00000,  0.00000,1,1,   0.00,  1,1.0000
    31,    32,'1 ',   0.02980,   0.09850,   0.02510,  135.00,  203.00,  304.00,  0.00000,  0.00000,  0.00000,  0.00000,1,1,   0.00,  1,1.0000
    32,   113,'1 ',   0.06150,   0.20300,   0.05180,  105.00,  158.00,  236.00,  0.00000,  0.00000,  0.00000,  0.00000,1,1,   0.00,  1,1.0000
    32,   114,'1 ',   0.01350,   0.06120,   0.01628,   54.00,   81.00,  122.00,  0.00000,  0.00000,  0.00000,  0.00000,1,1,   0.00,  1,1.0000
    33,    37,'1 ',   0.04150,   0.14200,   0.03660,  147.00,  221.00,  331.00,  0.00000,  0.00000,  0.00000,  0.00000,1,1,   0.00,  1,1.0000
    34,    36,'1 ',   0.00871,   0.02680,   0.00568,  105.00,  158.00,  236.00,  0.00000,  0.00000,  0.00000,  0.00000,1,1,   0.00,  1,1.0000
    34,    37,'1 ',   0.00256,   0.00940,   0.00984,  312.00,  468.00,  702.00,  0.00000,  0.00000,  0.00000,  0.00000,1,1,   0.00,  1,1.0000
    34,    43,'1 ',   0.04130,   0.16810,   0.04226,   81.00,  122.00,  182.00,  0.00000,  0.00000,  0.00000,  0.00000,1,1,   0.00,  1,1.0000
    35,    36,'1 ',   0.00224,   0.01020,   0.00268,   33.00,   50.00,   74.00,  0.00000,  0.00000,  0.00000,  0.00000,1,1,   0.00,  1,1.0000
    35,    37,'1 ',   0.01100,   0.04970,   0.01318,  114.00,  171.00,  257.00,  0.00000,  0.00000,  0.00000,  0.00000,1,1,   0.00,  1,1.0000
    37,    39,'1 ',   0.03210,   0.10600,   0.02700,  198.00,  297.00,  446.00,  0.00000,  0.00000,  0.00000,  0.00000,1,1,   0.00,  1,1.0000
    37,    40,'1 ',   0.05930,   0.16800,   0.04200,  165.00,  248.00,  371.00,  0.00000,  0.00000,  0.00000,  0.00000,1,1,   0.00,  1,1.0000
    38,    65,'1 ',   0.00901,   0.09860,   1.04600, 1047.00, 1571.00, 2356.00,  0.00000,  0.00000,  0.00000,  0.00000,1,1,   0.00,  1,1.0000
    39,    40,'1 ',   0.01840,   0.06050,   0.01552,  117.00,  176.00,  263.00,  0.00000,  0.00000,  0.00000,  0.00000,1,1,   0.00,  1,1.0000
    40,    41,'1 ',   0.01450,   0.04870,   0.01222,   87.00,  131.00,  196.00,  0.00000,  0.00000,  0.00000,  0.00000,1,1,   0.00,  1,1.0000
    40,    42,'1 ',   0.05550,   0.18300,   0.04660,  105.00,  158.00,  236.00,  0.00000,  0.00000,  0.00000,  0.00000,1,1,   0.00,  1,1.0000
    41,    42,'1 ',   0.04100,   0.13500,   0.03440,  132.00,  198.00,  297.00,  0.00000,  0.00000,  0.00000,  0.00000,1,1,   0.00,  1,1.0000
    42,    49,'1 ',   0.07150,   0.32300,   0.08600,  264.00,  396.00,  594.00,  0.00000,  0.00000,  0.00000,  0.00000,1,1,   0.00,  1,1.0000
    42,    49,'2 ',   0.07150,   0.32300,   0.08600,  264.00,  396.00,  594.00,  0.00000,  0.00000,  0.00000,  0.00000,1,1,   0.00,  1,1.0000
    43,    44,'1 ',   0.06080,   0.24540,   0.06068,  129.00,  194.00,  290.00,  0.00000,  0.00000,  0.00000,  0.00000,1,1,   0.00,  1,1.0000
    44,    45,'1 ',   0.02240,   0.09010,   0.02240,  177.00,  266.00,  398.00,  0.00000,  0.00000,  0.00000,  0.00000,1,1,   0.00,  1,1.0000
    45,    46,'1 ',   0.04000,   0.13560,   0.03320,  156.00,  234.00,  351.00,  0.00000,  0.00000,  0.00000,  0.00000,1,1,   0.00,  1,1.0000
    45,    49,'1 ',   0.06840,   0.18600,   0.04440,  192.00,  288.00,  432.00,  0.00000,  0.00000,  0.00000,  0.00000,1,1,   0.00,  1,1.0000
    46,    47,'1 ',   0.03800,   0.12700,   0.03160,  120.00,  180.00,  270.00,  0.00000,  0.00000,  0.00000,  0.00000,1,1,   0.00,  1,1.0000
    46,    48,'1 ',   0.06010,   0.18900,   0.04720,   63.00,   95.00,  142.00,  0.00000,  0.00000,  0.00000,  0.00000,1,1,   0.00,  1,1.0000
    47,    49,'1 ',   0.01910,   0.06250,   0.01604,   66.00,   99.00,  149.00,  0.00000,  0.00000,  0.00000,  0.00000,1,1,   0.00,  1,1.0000
    47,    69,'1 ',   0.08440,   0.27780,   0.07092,  243.00,  365.00,  547.00,  0.00000,  0.00000,  0.00000,  0.00000,1,1,   0.00,  1,1.0000
    48,    49,'1 ',   0.01790,   0.05050,   0.01258,  126.00,  189.00,  284.00,  0.00000,  0.00000,  0.00000,  0.00000,1,1,   0.00,  1,1.0000
    49,    50,'1 ',   0.02670,   0.07520,   0.01874,  195.00,  293.00,  439.00,  0.00000,  0.00000,  0.00000,  0.00000,1,1,   0.00,  1,1.0000
    49,    51,'1 ',   0.04860,   0.13700,   0.03420,  243.00,  365.00,  547.00,  0.00000,  0.00000,  0.00000,  0.00000,1,1,   0.00,  1,1.0000
    49,    54,'1 ',   0.08690,   0.29100,   0.07300,  150.00,  225.00,  338.00,  0.00000,  0.00000,  0.00000,  0.00000,1,1,   0.00,  1,1.0000
    49,    54,'2 ',   0.07300,   0.28900,   0.07380,  150.00,  225.00,  338.00,  0.00000,  0.00000,  0.00000,  0.00000,1,1,   0.00,  1,1.0000
    49,    66,'1 ',   0.01800,   0.09190,   0.02480,  540.00,  810.00, 1215.00,  0.00000,  0.00000,  0.00000,  0.00000,1,1,   0.00,  1,1.0000
    49,    66,'2 ',   0.01800,   0.09190,   0.02480,  540.00,  810.00, 1215.00,  0.00000,  0.00000,  0.00000,  0.00000,1,1,   0.00,  1,1.0000
    49,    69,'1 ',   0.09850,   0.32400,   0.08280,  216.00,  324.00,  486.00,  0.00000,  0.00000,  0.00000,  0.00000,1,1,   0.00,  1,1.0000
    50,    57,'1 ',   0.04740,   0.13400,   0.03320,  141.00,  212.00,  317.00,  0.00000,  0.00000,  0.00000,  0.00000,1,1,   0.00,  1,1.0000
    51,    52,'1 ',   0.02030,   0.05880,   0.01396,   99.00,  149.00,  223.00,  0.00000,  0.00000,  0.00000,  0.00000,1,1,   0.00,  1,1.0000
    51,    58,'1 ',   0.02550,   0.07190,   0.01788,   81.00,  122.00,  182.00,  0.00000,  0.00000,  0.00000,  0.00000,1,1,   0.00,  1,1.0000
    52,    53,'1 ',   0.04050,   0.16350,   0.04058,   45.00,   68.00,  101.00,  0.00000,  0.00000,  0.00000,  0.00000,1,1,   0.00,  1,1.0000
    53,    54,'1 ',   0.02630,   0.12200,   0.03100,   57.00,   86.00,  128.00,  0.00000,  0.00000,  0.00000,  0.00000,1,1,   0.00,  1,1.0000
    54,    55,'1 ',   0.01690,   0.07070,   0.02020,   33.00,   50.00,   74.00,  0.00000,  0.00000,  0.00000,  0.00000,1,1,   0.00,  1,1.0000
    54,    56,'1 ',   0.00275,   0.00955,   0.00732,   90.00,  135.00,  203.00,  0.00000,  0.00000,  0.00000,  0.00000,1,1,   0.00,  1,1.0000
    54,    59,'1 ',   0.05030,   0.22930,   0.05980,  117.00,  176.00,  263.00,  0.00000,  0.00000,  0.00000,  0.00000,1,1,   0.00,  1,1.0000
    55,    56,'1 ',   0.00488,   0.01510,   0.00374,   87.00,  131.00,  196.00,  0.00000,  0.00000,  0.00000,  0.00000,1,1,   0.00,  1,1.0000
    55,    59,'1 ',   0.04739,   0.21580,   0.05646,  129.00,  194.00,  290.00,  0.00000,  0.00000,  0.00000,  0.00000,1,1,   0.00,  1,1.0000
    56,    57,'1 ',   0.03430,   0.09660,   0.02420,   99.00,  149.00,  223.00,  0.00000,  0.00000,  0.00000,  0.00000,1,1,   0.00,  1,1.0000
    56,    58,'1 ',   0.03430,   0.09660,   0.02420,   45.00,   68.00,  101.00,  0.00000,  0.00000,  0.00000,  0.00000,1,1,   0.00,  1,1.0000
    56,    59,'1 ',   0.08030,   0.23900,   0.05360,  111.00,  167.00,  250.00,  0.00000,  0.00000,  0.00000,  0.00000,1,1,   0.00,  1,1.0000
    56,    59,'2 ',   0.08250,   0.25100,   0.05690,  111.00,  167.00,  250.00,  0.00000,  0.00000,  0.00000,  0.00000,1,1,   0.00,  1,1.0000
    59,    60,'1 ',   0.03170,   0.14500,   0.03760,  204.00,  306.00,  459.00,  0.00000,  0.00000,  0.00000,  0.00000,1,1,   0.00,  1,1.0000
    59,    61,'1 ',   0.03280,   0.15000,   0.03880,  231.00,  347.00,  520.00,  0.00000,  0.00000,  0.00000,  0.00000,1,1,   0.00,  1,1.0000
    60,    61,'1 ',   0.00264,   0.01350,   0.01456,  378.00,  567.00,  851.00,  0.00000,  0.00000,  0.00000,  0.00000,1,1,   0.00,  1,1.0000
    60,    62,'1 ',   0.01230,   0.05610,   0.01468,   69.00,  104.00,  155.00,  0.00000,  0.00000,  0.00000,  0.00000,1,1,   0.00,  1,1.0000
    61,    62,'1 ',   0.00824,   0.03760,   0.00980,  162.00,  243.00,  365.00,  0.00000,  0.00000,  0.00000,  0.00000,1,1,   0.00,  1,1.0000
    62,    66,'1 ',   0.04820,   0.21800,   0.05780,  174.00,  261.00,  392.00,  0.00000,  0.00000,  0.00000,  0.00000,1,1,   0.00,  1,1.0000
    62,    67,'1 ',   0.02580,   0.11700,   0.03100,  129.00,  194.00,  290.00,  0.00000,  0.00000,  0.00000,  0.00000,1,1,   0.00,  1,1.0000
    63,    64,'1 ',   0.00172,   0.02000,   0.21600,  702.00, 1053.00, 1580.00,  0.00000,  0.00000,  0.00000,  0.00000,1,1,   0.00,  1,1.0000
    64,    65,'1 ',   0.00269,   0.03020,   0.38000,  843.00, 1265.00, 1897.00,  0.00000,  0.00000,  0.00000,  0.00000,1,1,   0.00,  1,1.0000
    65,    68,'1 ',   0.00138,   0.01600,   0.63800,  798.00, 1197.00, 1796.00,  0.00000,  0.00000,  0.00000,  0.00000,1,1,   0.00,  1,1.0000
    66,    67,'1 ',   0.02240,   0.10150,   0.02682,  219.00,  329.00,  493.00,  0.00000,  0.00000,  0.00000,  0.00000,1,1,   0.00,  1,1.0000
    68,    81,'1 ',   0.00175,   0.02020,   0.80800,  627.00,  941.00, 1411.00,  0.00000,  0.00000,  0.00000,  0.00000,1,1,   0.00,  1,1.0000
    68,   116,'1 ',   0.00034,   0.00405,   0.16400,  642.00,  963.00, 1445.00,  0.00000,  0.00000,  0.00000,  0.00000,1,1,   0.00,  1,1.0000
    69,    70,'1 ',   0.03000,   0.12700,   0.12200,  393.00,  590.00,  884.00,  0.00000,  0.00000,  0.00000,  0.00000,1,1,   0.00,  1,1.0000
    69,    75,'1 ',   0.04050,   0.12200,   0.12400,  357.00,  536.00,  803.00,  0.00000,  0.00000,  0.00000,  0.00000,1,1,   0.00,  1,1.0000
    69,    77,'1 ',   0.03090,   0.10100,   0.10380,  525.00,  788.00, 1181.00,  0.00000,  0.00000,  0.00000,  0.00000,1,1,   0.00,  1,1.0000
    70,    71,'1 ',   0.00882,   0.03550,   0.00878,  132.00,  198.00,  297.00,  0.00000,  0.00000,  0.00000,  0.00000,1,1,   0.00,  1,1.0000
    70,    74,'1 ',   0.04010,   0.13230,   0.03368,  126.00,  189.00,  284.00,  0.00000,  0.00000,  0.00000,  0.00000,1,1,   0.00,  1,1.0000
    70,    75,'1 ',   0.04280,   0.14100,   0.03600,  105.00,  158.00,  236.00,  0.00000,  0.00000,  0.00000,  0.00000,1,1,   0.00,  1,1.0000
    71,    72,'1 ',   0.04460,   0.18000,   0.04444,  123.00,  185.00,  277.00,  0.00000,  0.00000,  0.00000,  0.00000,1,1,   0.00,  1,1.0000
    71,    73,'1 ',   0.00866,   0.04540,   0.01178,   45.00,   68.00,  101.00,  0.00000,  0.00000,  0.00000,  0.00000,1,1,   0.00,  1,1.0000
    74,    75,'1 ',   0.01230,   0.04060,   0.01034,  186.00,  279.00,  419.00,  0.00000,  0.00000,  0.00000,  0.00000,1,1,   0.00,  1,1.0000
    75,    77,'1 ',   0.06010,   0.19990,   0.04978,  150.00,  225.00,  338.00,  0.00000,  0.00000,  0.00000,  0.00000,1,1,   0.00,  1,1.0000
    75,   118,'1 ',   0.01450,   0.04810,   0.01198,  216.00,  324.00,  486.00,  0.00000,  0.00000,  0.00000,  0.00000,1,1,   0.00,  1,1.0000
    76,    77,'1 ',   0.04440,   0.14800,   0.03680,  222.00,  333.00,  500.00,  0.00000,  0.00000,  0.00000,  0.00000,1,1,   0.00,  1,1.0000
    76,   118,'1 ',   0.01640,   0.05440,   0.01356,  108.00,  162.00,  243.00,  0.00000,  0.00000,  0.00000,  0.00000,1,1,   0.00,  1,1.0000
    77,    78,'1 ',   0.00376,   0.01240,   0.01264,  255.00,  383.00,  574.00,  0.00000,  0.00000,  0.00000,  0.00000,1,1,   0.00,  1,1.0000
    77,    80,'1 ',   0.02940,   0.10500,   0.02280,  336.00,  504.00,  756.00,  0.00000,  0.00000,  0.00000,  0.00000,1,1,   0.00,  1,1.0000
    77,    80,'2 ',   0.01700,   0.04850,   0.04720,  336.00,  504.00,  756.00,  0.00000,  0.00000,  0.00000,  0.00000,1,1,   0.00,  1,1.0000
    77,    82,'1 ',   0.02980,   0.08530,   0.08174,  507.00,  761.00, 1141.00,  0.00000,  0.00000,  0.00000,  0.00000,1,1,   0.00,  1,1.0000
    78,    79,'1 ',   0.00546,   0.02440,   0.00648,  102.00,  153.00,  230.00,  0.00000,  0.00000,  0.00000,  0.00000,1,1,   0.00,  1,1.0000
    79,    80,'1 ',   0.01560,   0.07040,   0.01870,  228.00,  342.00,  513.00,  0.00000,  0.00000,  0.00000,  0.00000,1,1,   0.00,  1,1.0000
    80,    96,'1 ',   0.03560,   0.18200,   0.04940,  306.00,  459.00,  689.00,  0.00000,  0.00000,  0.00000,  0.00000,1,1,   0.00,  1,1.0000
    80,    97,'1 ',   0.01830,   0.09340,   0.02540,  333.00,  500.00,  749.00,  0.00000,  0.00000,  0.00000,  0.00000,1,1,   0.00,  1,1.0000
    80,    98,'1 ',   0.02380,   0.10800,   0.02860,  282.00,  423.00,  635.00,  0.00000,  0.00000,  0.00000,  0.00000,1,1,   0.00,  1,1.0000
    80,    99,'1 ',   0.04540,   0.20600,   0.05460,  243.00,  365.00,  547.00,  0.00000,  0.00000,  0.00000,  0.00000,1,1,   0.00,  1,1.0000
    82,    83,'1 ',   0.01120,   0.03665,   0.03796,  375.00,  563.00,  844.00,  0.00000,  0.00000,  0.00000,  0.00000,1,1,   0.00,  1,1.0000
    82,    96,'1 ',   0.01620,   0.05300,   0.05440,   66.00,   99.00,  149.00,  0.00000,  0.00000,  0.00000,  0.00000,1,1,   0.00,  1,1.0000
    83,    84,'1 ',   0.06250,   0.13200,   0.02580,  135.00,  203.00,  304.00,  0.00000,  0.00000,  0.00000,  0.00000,1,1,   0.00,  1,1.0000
    83,    85,'1 ',   0.04300,   0.14800,   0.03480,  189.00,  284.00,  425.00,  0.00000,  0.00000,  0.00000,  0.00000,1,1,   0.00,  1,1.0000
    84,    85,'1 ',   0.03020,   0.06410,   0.01234,  153.00,  230.00,  344.00,  0.00000,  0.00000,  0.00000,  0.00000,1,1,   0.00,  1,1.0000
    85,    86,'1 ',   0.03500,   0.12300,   0.02760,   66.00,   99.00,  149.00,  0.00000,  0.00000,  0.00000,  0.00000,1,1,   0.00,  1,1.0000
    85,    88,'1 ',   0.02000,   0.10200,   0.02760,  174.00,  261.00,  392.00,  0.00000,  0.00000,  0.00000,  0.00000,1,1,   0.00,  1,1.0000
    85,    89,'1 ',   0.02390,   0.17300,   0.04700,  237.00,  356.00,  533.00,  0.00000,  0.00000,  0.00000,  0.00000,1,1,   0.00,  1,1.0000
    86,    87,'1 ',   0.02828,   0.20740,   0.04450,   72.00,  108.00,  162.00,  0.00000,  0.00000,  0.00000,  0.00000,1,1,   0.00,  1,1.0000
    88,    89,'1 ',   0.01390,   0.07120,   0.01934,  321.00,  482.00,  722.00,  0.00000,  0.00000,  0.00000,  0.00000,1,1,   0.00,  1,1.0000
    89,    90,'1 ',   0.02380,   0.09970,   0.10600,  336.00,  504.00,  756.00,  0.00000,  0.00000,  0.00000,  0.00000,1,1,   0.00,  1,1.0000
    89,    90,'2 ',   0.05180,   0.18800,   0.05280,  336.00,  504.00,  756.00,  0.00000,  0.00000,  0.00000,  0.00000,1,1,   0.00,  1,1.0000
    89,    92,'1 ',   0.03930,   0.15810,   0.04140,  675.00, 1013.00, 1519.00,  0.00000,  0.00000,  0.00000,  0.00000,1,1,   0.00,  1,1.0000
    89,    92,'2 ',   0.00990,   0.05050,   0.05480,  675.00, 1013.00, 1519.00,  0.00000,  0.00000,  0.00000,  0.00000,1,1,   0.00,  1,1.0000
    90,    91,'1 ',   0.02540,   0.08360,   0.02140,  156.00,  234.00,  351.00,  0.00000,  0.00000,  0.00000,  0.00000,1,1,   0.00,  1,1.0000
    91,    92,'1 ',   0.03870,   0.12720,   0.03268,  150.00,  225.00,  338.00,  0.00000,  0.00000,  0.00000,  0.00000,1,1,   0.00,  1,1.0000
    92,    93,'1 ',   0.02580,   0.08480,   0.02180,  210.00,  315.00,  473.00,  0.00000,  0.00000,  0.00000,  0.00000,1,1,   0.00,  1,1.0000
    92,    94,'1 ',   0.04810,   0.15800,   0.04060,  198.00,  297.00,  446.00,  0.00000,  0.00000,  0.00000,  0.00000,1,1,   0.00,  1,1.0000
    92,   100,'1 ',   0.06480,   0.29500,   0.04720,  150.00,  225.00,  338.00,  0.00000,  0.00000,  0.00000,  0.00000,1,1,   0.00,  1,1.0000
    92,   102,'1 ',   0.01230,   0.05590,   0.01464,  189.00,  284.00,  425.00,  0.00000,  0.00000,  0.00000,  0.00000,1,1,   0.00,  1,1.0000
    93,    94,'1 ',   0.02230,   0.07320,   0.01876,  201.00,  302.00,  452.00,  0.00000,  0.00000,  0.00000,  0.00000,1,1,   0.00,  1,1.0000
    94,    95,'1 ',   0.01320,   0.04340,   0.01110,  192.00,  288.00,  432.00,  0.00000,  0.00000,  0.00000,  0.00000,1,1,   0.00,  1,1.0000
    94,    96,'1 ',   0.02690,   0.08690,   0.02300,  189.00,  284.00,  425.00,  0.00000,  0.00000,  0.00000,  0.00000,1,1,   0.00,  1,1.0000
    94,   100,'1 ',   0.01780,   0.05800,   0.06040,  294.00,  441.00,  662.00,  0.00000,  0.00000,  0.00000,  0.00000,1,1,   0.00,  1,1.0000
    95,    96,'1 ',   0.01710,   0.05470,   0.01474,  216.00,  324.00,  486.00,  0.00000,  0.00000,  0.00000,  0.00000,1,1,   0.00,  1,1.0000
    96,    97,'1 ',   0.01730,   0.08850,   0.02400,  273.00,  410.00,  614.00,  0.00000,  0.00000,  0.00000,  0.00000,1,1,   0.00,  1,1.0000
    98,   100,'1 ',   0.03970,   0.17900,   0.04760,  177.00,  266.00,  398.00,  0.00000,  0.00000,  0.00000,  0.00000,1,1,   0.00,  1,1.0000
...